4
Central geometry for initial conditions; COM at origin
   C      -0.0314195657       0.2970730063       0.1968381409
   H      -0.1303808757       1.2380653790       0.8201648568
   O      -0.2105631345       0.4470420280      -1.0378516815
   O       0.2423504814      -0.7479269950       0.8384982969
